19-norandrostenedione => 19-Norandrostenedione
4-hydroxytestosterone => 4-Hydroxytestosterone
Petite-Rivière-De-Nippes => Petite-Rivière-de-Nippes
4-hydroxybenzaldehyde => 4-Hydroxybenzaldehyde
2-acetylaminofluorene => 2-Acetylaminofluorene
Moneysavingexpert\.com => MoneySavingExpert.com
MagictheGathering\.com => Magicthegathering.com
Rebirthing-Breathwork => Rebirthing-breathwork
Budesonide/Formoterol => Budesonide/formoterol
Alpha-methylhistamine => Alpha-Methylhistamine
Thefreedictionary\.com => TheFreeDictionary.com
3-hydroxybenzaldehyde => 3-Hydroxybenzaldehyde
ClimatePrediction\.net => Climateprediction.net
2-bromo-1-chloropropane => 2-Bromo-1-chloropropane
Empathogen-Entactogen => Empathogen-entactogen
MagnetoHydroDynamics => Magnetohydrodynamics
Essertines-sur-yverdon => Essertines-sur-Yverdon
Magnesium/teflon/viton => Magnesium/Teflon/Viton
Baseball-reference\.com => Baseball-Reference.com
Llanfihangel-y-pennant => Llanfihangel-y-Pennant
S-aminoethyl-L-cysteine => S-Aminoethyl-L-cysteine
MagicTheGathering\.com => Magicthegathering.com
FLEX-Elektrowerkzeuge => Flex-Elektrowerkzeuge
Saint-Martin-D'Arberoue => Saint-Martin-d'Arberoue
Build-Operate-Transfer => Build-operate-transfer
Hospitals-meddelelser => Hospitals-Meddelelser
Beaconsfield–Baie-d'Urfé => Beaconsfield–Baie-D'Urfé
Cassop-cum-quarrington => Cassop-cum-Quarrington
2-methoxy-4-vinylphenol => 2-Methoxy-4-vinylphenol
Alpes-de-haute-Provence => Alpes-de-Haute-Provence
Montaubion-chardonney => Montaubion-Chardonney
Counter-enlightenment => Counter-Enlightenment
N-acetylgalactosamine => N-Acetylgalactosamine
Villars-sous-champvent => Villars-sous-Champvent
2-nitrocinnamaldehyde => 2-Nitrocinnamaldehyde
Valeyres-sous-montagny => Valeyres-sous-Montagny
Saintes-Maries-de-la-mer => Saintes-Maries-de-la-Mer
Moustiers-sainte-marie => Moustiers-Sainte-Marie
Converter/Descrambler => Converter/descrambler
4-dimethylaminophenol => 4-Dimethylaminophenol
Fontaines-sur-grandson => Fontaines-sur-Grandson
Para-bromoamphetamine => Para-Bromoamphetamine
Alpha-ethyltryptamine => Alpha-Ethyltryptamine
Anti-Authoritarianism => Anti-authoritarianism
3-fluoromethcathinone => 3-Fluoromethcathinone
Appleby-In-Westmorland => Appleby-in-Westmorland
Model–View–Controller => Model–view–controller
Nearlyfreespeech\.net => NearlyFreeSpeech.NET
HR-Sinfonieorchester => Hr-Sinfonieorchester
Anti-Intellectualism => Anti-intellectualism
Futuresex/lovesounds => FutureSex/LoveSounds
N-Nitroso-N-Methylurea => N-Nitroso-N-methylurea
LORIMAR-Telepictures => Lorimar-Telepictures
8-oxo-2'-deoxyguanosine => 8-Oxo-2'-deoxyguanosine
Nyrðra-vatnalautavatn => Nyrðra-Vatnalautavatn
Interfaithfamily\.com => InterfaithFamily.com
Corcelles-près-concise => Corcelles-près-Concise
8-chlorotheophylline => 8-Chlorotheophylline
Essert-sous-champvent => Essert-sous-Champvent
Alpha-methylfentanyl => Alpha-Methylfentanyl
Villefranche-Sur-Saône => Villefranche-sur-Saône
NearlyFreeSpeech\.net => NearlyFreeSpeech.NET
Cheseaux-sur-lausanne => Cheseaux-sur-Lausanne
Mecklenburg-strelitz => Mecklenburg-Strelitz
2-methoxyamphetamine => 2-Methoxyamphetamine
Futuresex/Lovesounds => FutureSex/LoveSounds
N-hydroxysuccinimide => N-Hydroxysuccinimide
7-dehydrocholesterol => 7-Dehydrocholesterol
7-hydroxymitragynine => 7-Hydroxymitragynine
Newspaperarchive\.com => NewspaperARCHIVE.com
Bowness-On-Windermere => Bowness-on-Windermere
P-azobenzenearsonate => P-Azobenzenearsonate
Tachiguishi-retsuden => Tachiguishi-Retsuden
Heckelphone-Clarinet => Heckelphone-clarinet
2-nitrodiphenylamine => 2-Nitrodiphenylamine
Alpha-naphthoflavone => alpha-Naphthoflavone
Cross-Multiplication => Cross-multiplication
Clifton-Upon-Dunsmore => Clifton-upon-Dunsmore
3-methylthiofentanyl => 3-Methylthiofentanyl
Ratemyprofessors\.com => RateMyProfessors.com
Corcelles-près-payerne => Corcelles-près-Payerne
Barton-Under-Needwood => Barton-under-Needwood
Anti-Supernaturalism => Anti-supernaturalism
1-amino-3-phenylindole => 1-Amino-3-phenylindole
Right-Libertarianism => Right-libertarianism
4-nonanoylmorpholine => 4-Nonanoylmorpholine
1-methylcyclopropene => 1-Methylcyclopropene
Undervoltage-Lockout => Undervoltage-lockout
4-nitrochlorobenzene => 4-Nitrochlorobenzene
Oulens-sous-echallens => Oulens-sous-Echallens
Alpha-2-macroglobulin => Alpha-2-Macroglobulin
3-deoxyanthocyanidin => 3-Deoxyanthocyanidin
Chennevières-Sur-Marne => Chennevières-sur-Marne
NearlyFreeSpeech\.Net => NearlyFreeSpeech.NET
Arromanches-les-bains => Arromanches-les-Bains
3-methoxyamphetamine => 3-Methoxyamphetamine
Beta-Thromboglobulin => Beta-thromboglobulin
N-methylethanolamine => N-Methylethanolamine
Para-iodoamphetamine => Para-Iodoamphetamine
Neuro-Psychoanalysis => Neuro-psychoanalysis
N-nitroso-N-methylurea => N-Nitroso-N-methylurea
2-phenylethylbromide => 2-Phenylethylbromide
2-ethylanthraquinone => 2-Ethylanthraquinone
Bussigny-près-lausanne => Bussigny-près-Lausanne
4-maleylacetoacetate => 4-Maleylacetoacetate
N-acetylprocainamide => N-Acetylprocainamide
2-fluoroamphetamine => 2-Fluoroamphetamine
Woluwe-saint-lambert => Woluwe-Saint-Lambert
Counter-reformation => Counter-Reformation
Gamma-valerolactone => gamma-Valerolactone
6-monoacetylcodeine => 6-Monoacetylcodeine
Villars-sainte-croix => Villars-Sainte-Croix
N-acetylmannosamine => N-Acetylmannosamine
4-methylamphetamine => 4-Methylamphetamine
Brafield-on-the-green => Brafield-on-the-Green
Slaughterhouse-five => Slaughterhouse-Five
N-Acetyltransferase => N-acetyltransferase
4-fluoroamphetamine => 4-Fluoroamphetamine
Dontdatehimgirl\.com => DontDateHimGirl.com
Alpha-propiolactone => Alpha-Propiolactone
Saint-Germain-des-prés => Saint-Germain-des-Prés
1-chloronaphthalene => 1-Chloronaphthalene
Grande-Rivière-Du-Nord => Grande-Rivière-du-Nord
Beta-naphthoflavone => Beta-Naphthoflavone
SoundraPandiapuram => Soundrapandiapuram
Saint-Jean-cap-Ferrat => Saint-Jean-Cap-Ferrat
3-methylamphetamine => 3-Methylamphetamine
Chavannes-sur-moudon => Chavannes-sur-Moudon
N-acetylglycinamide => N-Acetylglycinamide
Mygreenelectronics => myGreenElectronics
Valeyres-sous-rances => Valeyres-sous-Rances
4-fluoro-5-methoxy-DMT => 4-Fluoro-5-methoxy-DMT
Varengeville-sur-mer => Varengeville-sur-Mer
Nasaspaceflight\.com => NASAspaceflight.com
3-methyl-4-octanolide => 3-Methyl-4-octanolide
Saint-Germain-En-Laye => Saint-Germain-en-Laye
Newcastle-under-lyme => Newcastle-under-Lyme
Juurusvesi–akonvesi => Juurusvesi–Akonvesi
Ashton-In-Makerfield => Ashton-in-Makerfield
Crawler-Transporter => Crawler-transporter
Directorate-general => Directorate-General
NASASpaceflight\.com => NASAspaceflight.com
3-fluoroamphetamine => 3-Fluoroamphetamine
Gamma-butyrolactone => Gamma-Butyrolactone
Anarcho-Primitivism => Anarcho-primitivism
Scientificmatch\.com => ScientificMatch.com
2-nitrobenzaldehyde => 2-Nitrobenzaldehyde
O-desmethyltramadol => O-Desmethyltramadol
7-dehydrositosterol => 7-Dehydrositosterol
Anarcho-Syndicalism => Anarcho-syndicalism
Crypto-christianity => Crypto-Christianity
Saint-Ouen-des-champs => Saint-Ouen-des-Champs
Abstraction-création => Abstraction-Création
Beautifulpeople\.com => BeautifulPeople.com
5-methoxytryptamine => 5-Methoxytryptamine
Cadoxton-Juxta-Neath => Cadoxton-juxta-Neath
Cylinder-Head-Sector => Cylinder-head-sector
Romanel-sur-lausanne => Romanel-sur-Lausanne
Bretigny-sur-morrens => Bretigny-sur-Morrens
1-methylnaphthalene => 1-Methylnaphthalene
Modernism/Modernity => Modernism/modernity
Parmigiano-reggiano => Parmigiano-Reggiano
Alpha-methylstyrene => Alpha-Methylstyrene
4-methanolquinoline => 4-Methanolquinoline
Valeyres-sous-ursins => Valeyres-sous-Ursins
Chesalles-sur-moudon => Chesalles-sur-Moudon
Belmont-sur-lausanne => Belmont-sur-Lausanne
Montagny-près-yverdon => Montagny-près-Yverdon
Onlinefamily\.norton => OnlineFamily.Norton
KnowThyNeighbor\.org => Knowthyneighbor.org
In-methylcyclophane => In-Methylcyclophane
Stmicroelectronics => STMicroelectronics
Newcastle-Under-Lyme => Newcastle-under-Lyme
Left-Libertarianism => Left-libertarianism
Yamatohime-no-Mikoto => Yamatohime-no-mikoto
Essertines-sur-rolle => Essertines-sur-Rolle
Restigouche-la-Vallée => Restigouche-La-Vallée
Delta-valerolactone => delta-Valerolactone
10-deacetylbaccatin => 10-Deacetylbaccatin
5-hydroxytryptophan => 5-Hydroxytryptophan
Eastsouthwestnorth => EastSouthWestNorth
N-acetylglucosamine => N-Acetylglucosamine
6-benzylaminopurine => 6-Benzylaminopurine
Chavannes-près-renens => Chavannes-près-Renens
11-ketotestosterone => 11-Ketotestosterone
3-nitrobenzaldehyde => 3-Nitrobenzaldehyde
Widecombe-in-the-moor => Widecombe-in-the-Moor
3-hydroxykynurenine => 3-Hydroxykynurenine
Paray-vieille-Poste => Paray-Vieille-Poste
Audio-animatronics => Audio-Animatronics
Self-Actualization => Self-actualization
2-mercaptopyridine => 2-Mercaptopyridine
Post-impressionism => Post-Impressionism
LusoQualquerCoisa => LusoQUALQUERcoisa
PharmacoEconomics => Pharmacoeconomics
Rock-Paper-Scissors => Rock-paper-scissors
M-phenylenediamine => m-Phenylenediamine
5-dehydroepisterol => 5-Dehydroepisterol
5-dehydro-m-xylylene => 5-Dehydro-m-xylylene
Self-Righteousness => Self-righteousness
P-phenylenediamine => P-Phenylenediamine
GlobalSecurity\.Org => GlobalSecurity.org
Stratford-Upon-Avon => Stratford-upon-Avon
2-methoxyestradiol => 2-Methoxyestradiol
Post-Structuralism => Post-structuralism
3-dehydrocarnitine => 3-Dehydrocarnitine
Blacksummers'night => BLACKsummers'night
2-methylbutyryl-CoA => 2-Methylbutyryl-CoA
8-hydroxyquinoline => 8-Hydroxyquinoline
20-hydroxyecdysone => 20-Hydroxyecdysone
Vaux-Devant-Damloup => Vaux-devant-Damloup
National-anarchism => National-Anarchism
Realclearpolitics => RealClearPolitics
Chushan-rishathaim => Chushan-Rishathaim
Anarcho-Capitalism => Anarcho-capitalism
Writeaprisoner\.com => WriteAPrisoner.com
Petit-Trou-De-Nippes => Petit-Trou-de-Nippes
S-methylmethionine => S-Methylmethionine
Globalsecurity\.org => GlobalSecurity.org
5-O-methylmyricetin => 5-O-Methylmyricetin
N-bromosuccinimide => N-Bromosuccinimide
Post-Postmodernism => Post-postmodernism
Counter-Insurgency => Counter-insurgency
Saint-Nom-La-Bretèche => Saint-Nom-la-Bretèche
Ambassador-at-large => Ambassador-at-Large
Combremont-le-grand => Combremont-le-Grand
4-benzylpiperidine => 4-Benzylpiperidine
Proto-indo-european => Proto-Indo-European
8-hydroxyguanosine => 8-Hydroxyguanosine
Tourrettes-sur-loup => Tourrettes-sur-Loup
19-norandrosterone => 19-Norandrosterone
O-phenylenediamine => O-Phenylenediamine
Gressoney-la-Trinité => Gressoney-La-Trinité
Woluwe-saint-pierre => Woluwe-Saint-Pierre
4-vinylcyclohexene => 4-Vinylcyclohexene
5-O-methylgenistein => 5-O-Methylgenistein
7-hydroxyamoxapine => 7-Hydroxyamoxapine
Superfreakonomics => SuperFreakonomics
Democracyinaction => DemocracyInAction
Issy-Les-Moulineaux => Issy-les-Moulineaux
19-iodocholesterol => 19-Iodocholesterol
Public\.resource.org => Public.Resource.Org
Slavyansk-Na-Kubani => Slavyansk-na-Kubani
Beta-propiolactone => Beta-Propiolactone
Queen-of-the-Prairie => Queen-of-the-prairie
Saint-Maur-des-fossés => Saint-Maur-des-Fossés
Granges-près-marnand => Granges-près-Marnand
Saint-Pierre-D'Irube => Saint-Pierre-d'Irube
Electro-Industrial => Electro-industrial
Karlsson-on-the-roof => Karlsson-on-the-Roof
1800wheelchair\.com => 1800Wheelchair.com
Citymeals-on-wheels => Citymeals-on-Wheels
Three-five-zero-zero => Three-Five-Zero-Zero
N-acylethanolamine => N-Acylethanolamine
Combremont-le-petit => Combremont-le-Petit
Belmont-sur-yverdon => Belmont-sur-Yverdon
Gem-difluoroalkene => Gem-Difluoroalkene
Chapelle-sur-moudon => Chapelle-sur-Moudon
Neder-Over-Heembeek => Neder-over-Heembeek
Minister-president => Minister-President
Self-Incrimination => Self-incrimination
Carabiniers-à-cheval => Carabiniers-à-Cheval
N-methyltryptamine => N-Methyltryptamine
1-phenylethylamine => 1-Phenylethylamine
PolyAcryloNitrile => Polyacrylonitrile
Peterston-Super-Ely => Peterston-super-Ely
Hockeyallsvenskan => HockeyAllsvenskan
Montpezat-de-quercy => Montpezat-de-Quercy
Beta-Galactosidase => Beta-galactosidase
Llanfair-yn-neubwll => Llanfair-yn-Neubwll
Mézery-près-donneloye => Mézery-près-Donneloye
Flight-to-Liquidity => Flight-to-liquidity
N-formylmethionine => N-Formylmethionine
4-hydroxycoumarins => 4-Hydroxycoumarins
Linuxquestions\.org => LinuxQuestions.org
Micro-partitioning => Micro-Partitioning
Computerweekly\.com => ComputerWeekly.com
Moggaliputta-tissa => Moggaliputta-Tissa
Alpha-bungarotoxin => Alpha-Bungarotoxin
N-formylpiperidine => N-Formylpiperidine
Clinicaltrials\.gov => ClinicalTrials.gov
Eurointernational => EuroInternational
4-phenylpiperidine => 4-Phenylpiperidine
2-methylisoborneol => 2-Methylisoborneol
Chavannes-le-veyron => Chavannes-le-Veyron
JapanesePod101\.com => Japanesepod101.com
Pro-Vice-Chancellor => Pro-vice-chancellor
Openmicroblogging => OpenMicroBlogging
N'-formylkynurenine => N'-Formylkynurenine
Dweller-In-Darkness => Dweller-in-Darkness
Opinionjournal\.com => OpinionJournal.com
Client-Queue-Client => Client-queue-client
Bourbonne-Les-Bains => Bourbonne-les-Bains
Saint-Amand-Les-Eaux => Saint-Amand-les-Eaux
Saltburn-By-The-Sea => Saltburn-by-the-Sea
Library@Esplanade => library@esplanade
Corcelles-le-jorat => Corcelles-le-Jorat
Counter-Economics => Counter-economics
Self-Organization => Self-organization
Italo-venezuelans => Italo-Venezuelans
Croix-Des-Bouquets => Croix-des-Bouquets
InnerPartySystem => Innerpartysystem
Alpha-tocotrienol => Alpha-Tocotrienol
EpiphenomenalIsm => Epiphenomenalism
Illnau-effretikon => Illnau-Effretikon
Fontenay-Aux-Roses => Fontenay-aux-Roses
Prashant-krishnan => Prashant-Krishnan
Teleradio-Moldova => TeleRadio-Moldova
Neauphle-Le-Château => Neauphle-le-Château
Superantispyware => SUPERAntiSpyware
Micro-Pulling-Down => Micro-pulling-down
TangataWhenua\.com => Tangatawhenua.com
3-iodothyronamine => 3-Iodothyronamine
Neo-scholasticism => Neo-Scholasticism
DisneyRemixMania => Disneyremixmania
Para-azoxyanisole => Para-Azoxyanisole
Berwick-upon-tweed => Berwick-upon-Tweed
Commodore-In-Chief => Commodore-in-Chief
Chavannes-de-bogis => Chavannes-de-Bogis
Commander-in-Chief => Commander-in-chief
Ormesson-Sur-Marne => Ormesson-sur-Marne
Semi-Professional => Semi-professional
Arques-La-Bataille => Arques-la-Bataille
N-methylformamide => N-Methylformamide
Villars-le-terroir => Villars-le-Terroir
3-methoxytyramine => 3-Methoxytyramine
VampireFreaks\.com => Vampirefreaks.com
Tassin-la-demi-lune => Tassin-la-Demi-Lune
Wikiprofessional => WikiProfessional
Heartsrevolution => HeartsRevolution
Visitscotland\.com => VisitScotland.com
Control-alt-delete => Control-Alt-Delete
Pool-in-wharfedale => Pool-in-Wharfedale
Ultra-romanticism => Ultra-Romanticism
Trueachievements => TrueAchievements
Niagara-On-The-Lake => Niagara-on-the-Lake
Inter\.Funda.Stifle => Inter.funda.stifle
AEquiprobabilism => Aequiprobabilism
11-Nor-9-carboxy-THC => 11-nor-9-Carboxy-THC
Urea-Formaldehyde => Urea-formaldehyde
CricketWatchDogs => CricketWatchdogs
Birchington-on-sea => Birchington-on-Sea
Donationcoder\.com => DonationCoder.com
Configure-to-Order => Configure-to-order
Perverted-justice => Perverted-Justice
N-acetylserotonin => N-Acetylserotonin
Epharmasolutions => EPharmaSolutions
VideoLectures\.NET => VideoLectures.net
Reliabilityfirst => ReliabilityFirst
Berwick-Upon-Tweed => Berwick-upon-Tweed
1-methylimidazole => 1-Methylimidazole
Bourg-saint-pierre => Bourg-Saint-Pierre
Neo-Expressionism => Neo-expressionism
2-mercaptoethanol => 2-Mercaptoethanol
Singer-Songwriter => Singer-songwriter
N-ethyltryptamine => N-Ethyltryptamine
Châteauneuf-la-forêt => Châteauneuf-la-Forêt
5-hydroxyisourate => 5-Hydroxyisourate
2-methylundecanal => 2-Methylundecanal
Barton-Upon-Humber => Barton-upon-Humber
Ogle-2005-blg-390lb => OGLE-2005-BLG-390Lb
Machine-to-machine => Machine-to-Machine
Montceau-Les-Mines => Montceau-les-Mines
Kinderhilfe-nepal => Kinderhilfe-Nepal
WirtschaftsWoche => Wirtschaftswoche
IndustrialnatioN => Industrialnation
Counter-Terrorism => Counter-terrorism
Graphicconverter => GraphicConverter
Taylormade-adidas => TaylorMade-adidas
N-propyl-L-arginine => N-Propyl-L-arginine
Villars-tiercelin => Villars-Tiercelin
MaximumRockNRoll => Maximumrocknroll
GPL-violations\.org => gpl-violations.org
Alpha-mannosidase => Alpha-Mannosidase
Chavannes-des-bois => Chavannes-des-Bois
Pseudo-Secularism => Pseudo-secularism
Lanteglos-By-Fowey => Lanteglos-by-Fowey
Tremblay-En-France => Tremblay-en-France
Cherryblackstone => CherryBlackStone
Anglo-catholicism => Anglo-Catholicism
Châteauneuf-du-pape => Châteauneuf-du-Pape
Secretary-general => Secretary-General
Roadkillovercoat => RoadKillOvercoat
Romanel-sur-morges => Romanel-sur-Morges
Chuokoron-shinsha => Chuokoron-Shinsha
Commander-In-Chief => Commander-in-chief
Visualboyadvance => VisualBoyAdvance
Wordreference\.com => WordReference.com
Vufflens-le-château => Vufflens-le-Château
Tert-butyllithium => Tert-Butyllithium
Bonnières-sur-seine => Bonnières-sur-Seine
Neo-Impressionism => Neo-impressionism
Worldmadechannel => WorldMadeChannel
Meelick-eyrecourt => Meelick-Eyrecourt
Villeneuve-Sur-Lot => Villeneuve-sur-Lot
ISouljaBoyTellEm => ISouljaBoyTellem
ConsequentialIsm => Consequentialism
Kirkby-In-Ashfield => Kirkby-in-Ashfield
SENTIMENTALovers => Sentimentalovers
Saint-Louis-Du-Nord => Saint-Louis-du-Nord
Michaelston-y-fedw => Michaelston-y-Fedw
MindModeling@home => MindModeling@Home
Beatthatquote\.com => BeatThatQuote.com
Chesalles-sur-oron => Chesalles-sur-Oron
Colleville-sur-mer => Colleville-sur-Mer
Marilynmanson\.com => MarilynManson.com
Saint-cirq-lapopie => Saint-Cirq-Lapopie
N-methylspiperone => N-Methylspiperone
1-dotriacontanol => 1-Dotriacontanol
Scifidimensions => SciFiDimensions
ThatGameCompany => Thatgamecompany
Faster-Than-Light => Faster-than-light
Sec-butyllithium => Sec-Butyllithium
Movietickets\.com => MovieTickets.com
Gamepolitics\.com => GamePolitics.com
Anantarika-Karma => Anantarika-karma
Studentuniverse => StudentUniverse
Chavannes-le-chêne => Chavannes-le-Chêne
4-hydroxynonenal => 4-Hydroxynonenal
Goldenpalace\.com => GoldenPalace.com
Pseudo-Anglicism => Pseudo-anglicism
Epsilon-amanitin => Epsilon-Amanitin
Ashur-Nadin-Shumi => Ashur-nadin-shumi
Pistolet-Pulemet => Pistolet-pulemet
Pleura-Pneumonia => Pleura-pneumonia
Gamma-tocopherol => Gamma-Tocopherol
Ville-sous-La-Ferté => Ville-sous-la-Ferté
RockNRollDating => RocknRollDating
Director-General => Director-general
Preussenelektra => PreussenElektra
Openillusionist => OpenIllusionist
Helgelandskraft => HelgelandsKraft
BodyBuilding\.com => Bodybuilding.com
Santralistanbul => SantralIstanbul
U2\.Communication => U2.COMmunication
Bussy-chardonney => Bussy-Chardonney
U2\.communication => U2.COMmunication
Franco-manitoban => Franco-Manitoban
Chapel-en-le-frith => Chapel-en-le-Frith
Asbestos-Ceramic => Asbestos-ceramic
Beaune-La-Rolande => Beaune-la-Rolande
ChangesOneBowie => Changesonebowie
Drake-brockmania => Drake-Brockmania
Yoko-shiho-gatame => Yoko-Shiho-Gatame
Villars-sous-yens => Villars-sous-Yens
Resellerratings => ResellerRatings
3-hydroxybutanal => 3-Hydroxybutanal
Chuck-Will's-Widow => Chuck-will's-widow
Fontenay-le-comte => Fontenay-le-Comte
Essence-function => Essence-Function
Tvshowsondvd\.com => TVShowsOnDVD.com
Corsier-sur-vevey => Corsier-sur-Vevey
Anti-revisionism => Anti-Revisionism
Stepmother-In-Law => Stepmother-in-law
Littlebigplanet => LittleBigPlanet
Neo-confucianism => Neo-Confucianism
Upton-Upon-Severn => Upton-upon-Severn
ChangesTwoBowie => Changestwobowie
Zaphnath-paaneah => Zaphnath-Paaneah
Sutton-in-the-isle => Sutton-in-the-Isle
Singletrackmind => SingleTrackMind
Garges-Lès-Gonesse => Garges-lès-Gonesse
Stepfather-In-Law => Stepfather-in-law
Bankgiroloterij => BankGiroLoterij
4-androstenediol => 4-Androstenediol
Dalton-In-Furness => Dalton-in-Furness
Petestrumentals => PeteStrumentals
2-chloropyridine => 2-Chloropyridine
Pureness/nanairo => Pureness/Nanairo
4-methylpyridine => 4-Methylpyridine
Neighbor-Joining => Neighbor-joining
Laval-Des-Rapides => Laval-des-Rapides
Eurobilltracker => EuroBillTracker
5-methylcytosine => 5-Methylcytosine
Fivethirtyeight => FiveThirtyEight
Newton-Le-Willows => Newton-le-Willows
Weston-Super-Mare => Weston-super-Mare
Flutter-Tonguing => Flutter-tonguing
Completelynovel => CompletelyNovel
LenHydroProject => Lenhydroproject
N-ethylmaleimide => N-Ethylmaleimide
Faster-than-Light => Faster-than-light
Mcdonaldization => McDonaldization
Opplandstrafikk => OpplandsTrafikk
Messenger-at-Arms => Messenger-at-arms
N-vinylcarbazole => N-Vinylcarbazole
EpiAndrosterone => Epiandrosterone
Savigny-Le-Temple => Savigny-le-Temple
4-methylaminorex => 4-Methylaminorex
De-stalinization => De-Stalinization
Mathchallengers => MathChallengers
6-hydroxyflavone => 6-Hydroxyflavone
Hystero-Epilepsy => Hystero-epilepsy
2-methylpyridine => 2-Methylpyridine
3-methylfentanyl => 3-Methylfentanyl
Weston-super-mare => Weston-super-Mare
Bussigny-sur-oron => Bussigny-sur-Oron
Turbo-hydramatic => Turbo-Hydramatic
Anarcha-Feminism => anarcha-feminism
LittleBIGPlanet => LittleBigPlanet
6-O-methylguanine => 6-O-Methylguanine
1-amino-2-propanol => 1-Amino-2-propanol
Llanbedr-y-cennin => Llanbedr-y-Cennin
Cunninlynguists => CunninLynguists
Exploreanywhere => ExploreAnywhere
Jaeger-lecoultre => Jaeger-LeCoultre
Simplexgrinnell => SimplexGrinnell
3-methyl-3-octanol => 3-Methyl-3-octanol
Alpha-tocopherol => Alpha-Tocopherol
Pre-Kindergarten => Pre-kindergarten
Ramathaim-zophim => Ramathaim-Zophim
Neo-gramscianism => Neo-Gramscianism
Covenant-Breaker => Covenant-breaker
Neyruz-sur-moudon => Neyruz-sur-Moudon
Installanywhere => InstallAnywhere
Romainmôtier-envy => Romainmôtier-Envy
Informationweek => InformationWeek
Grange-Over-Sands => Grange-over-Sands
3-methylpyridine => 3-Methylpyridine
Bloggingheads\.TV => Bloggingheads.tv
Livingknowledge => LivingKnowledge
TVShowsonDVD\.com => TVShowsOnDVD.com
Crypto-Anarchism => Crypto-anarchism
Domrémy-La-Pucelle => Domrémy-la-Pucelle
Walmington-On-Sea => Walmington-on-Sea
2-cyanoguanidine => 2-Cyanoguanidine
Anti-Imperialism => Anti-imperialism
Crystalgraphics => CrystalGraphics
Debian-installer => Debian-Installer
Anti-americanism => Anti-Americanism
Lowermybills\.com => LowerMyBills.com
Chester-le-street => Chester-le-Street
Universalgiving => UniversalGiving
Norrlandsoperan => NorrlandsOperan
2-methyl-2-butanol => 2-Methyl-2-butanol
MetropolisMania => Metropolismania
Transgeneration => TransGeneration
Saint-Louis-Du-Sud => Saint-Louis-du-Sud
Chapel-En-Le-Frith => Chapel-en-le-Frith
Portableapps\.com => PortableApps.com
Videodownloader => VideoDownloader
Hypercourseware => HyperCourseware
Neuilly-Sur-Seine => Neuilly-sur-Seine
Wells-next-the-sea => Wells-next-the-Sea
Self-Cannibalism => Self-cannibalism
Holme-Next-The-Sea => Holme-next-the-Sea
Oradour-Sur-Glane => Oradour-sur-Glane
Yverdon-les-bains => Yverdon-les-Bains
Adopt-a-minefield => Adopt-A-Minefield
Housepricecrash => HousePriceCrash
Micro-Enterprise => Micro-enterprise
Glaxosmithkline => GlaxoSmithKline
ElectroPlankton => Electroplankton
3-hydroxyflavone => 3-Hydroxyflavone
Ashton-Under-Lyne => Ashton-under-Lyne
Electro-theremin => Electro-Theremin
Savigny-Lès-Beaune => Savigny-lès-Beaune
Self-Realization => Self-realization
Barrow-in-furness => Barrow-in-Furness
2-methyl-1-butanol => 2-Methyl-1-butanol
Soligny-La-Trappe => Soligny-la-Trappe
Lamalou-Les-Bains => Lamalou-les-Bains
Alpha-latrotoxin => Alpha-Latrotoxin
Second-in-Command => Second-in-command
8-aminoquinoline => 8-Aminoquinoline
4-methyl-1-pentene => 4-Methyl-1-pentene
Cross-Covariance => Cross-covariance
Palalottomatica => PalaLottomatica
Seine-saint-Denis => Seine-Saint-Denis
Delta-tocopherol => Delta-Tocopherol
4-aminoquinoline => 4-Aminoquinoline
5-androstenediol => 5-Androstenediol
Webreference\.com => WebReference.com
Self-Sufficiency => Self-sufficiency
Vufflens-la-ville => Vufflens-la-Ville
Oulens-sur-lucens => Oulens-sur-Lucens
Tense-Aspect-Mood => Tense-aspect-mood
Chester-Le-Street => Chester-le-Street
Printablestring => PrintableString
Goumoens-la-ville => Goumoens-la-Ville
Service-Learning => Service-learning
Connectkentucky => ConnectKentucky
Wotton-Under-Edge => Wotton-under-Edge
Globalfoundries => GlobalFoundries
Newton-le-willows => Newton-le-Willows
Sunbury-On-Thames => Sunbury-on-Thames
2-mercaptoindole => 2-Mercaptoindole
Biblegateway\.com => BibleGateway.com
Anti-catholicism => Anti-Catholicism
Governor-general => Governor-General
Non-Return-to-Zero => Non-return-to-zero
2-methoxyethanol => 2-Methoxyethanol
Theatre-by-the-Sea => Theatre-By-the-Sea
3-deoxyglucosone => 3-Deoxyglucosone
Experts-exchange => Experts-Exchange
BloggingHeads\.tv => Bloggingheads.tv
Doityourself\.com => DoItYourself.com
Montmagny—l'Islet => Montmagny—L'Islet
Châtel-saint-denis => Châtel-Saint-Denis
Mydeathspace\.com => MyDeathSpace.com
Quinn-healthcare => QUINN-healthcare
Recordmydesktop => RecordMyDesktop
Omnidictionary => OmniDictionary
Post-Surrealism => Post-surrealism
Ultra-Triathlon => Ultra-triathlon
Rennes-le-château => Rennes-le-Château
Citiapartments => CitiApartments
Stoke-upon-trent => Stoke-upon-Trent
2-naphthylamine => 2-Naphthylamine
1-naphthylamine => 1-Naphthylamine
Hilal-i-Istaqlal => Hilal-i-istaqlal
Borris-in-ossory => Borris-in-Ossory
Bois-de-boulogne => Bois-de-Boulogne
Sourcekibitzer => SourceKibitzer
Storyquarterly => StoryQuarterly
Multimediacard => MultiMediaCard
Lewrockwell\.com => LewRockwell.com
Quantumdigital => QuantumDigital
MetaPhilosophy => Metaphilosophy
Non-archimedean => non-Archimedean
Inverness-Shire => Inverness-shire
Fort-mahon-plage => Fort-Mahon-Plage
Hydrogeosphere => HydroGeoSphere
Ukgameshows\.com => UKGameshows.com
Sixnationstate => SixNationState
Consumerlab\.com => ConsumerLab.com
4-aminobiphenyl => 4-Aminobiphenyl
D-chiro-inositol => D-chiro-Inositol
Ashby-De-La-Zouch => Ashby-de-la-Zouch
Order-in-council => Order-in-Council
President-Elect => President-elect
Graphicsmagick => GraphicsMagick
Tiglath-pileser => Tiglath-Pileser
Onmilwaukee\.com => OnMilwaukee.com
Crans-près-céligny => Crans-près-Céligny
Colston-ariston => Colston-Ariston
Cleancoalition => CleanCOALition
BakeMonogatari => Bakemonogatari
Newbridge-on-wye => Newbridge-on-Wye
Pan-americanism => Pan-Americanism
Versiontracker => VersionTracker
Sword-and-Sandal => Sword-and-sandal
Cricketarchive => CricketArchive
Villars-burquin => Villars-Burquin
Kleenex/Liliput => Kleenex/LiLiPUT
HowStuffIsMade => Howstuffismade
Hyper-calvinism => Hyper-Calvinism
Scyllo-inositol => Scyllo-Inositol
AEchmalotarcha => Aechmalotarcha
FallschirmJäger => Fallschirmjäger
Redandnater\.com => RedandNater.com
Gwaun-cae-Gurwen => Gwaun-Cae-Gurwen
Serjeant-At-Arms => Serjeant-at-Arms
Ashur-Nadin-Apli => Ashur-nadin-apli
Adventurequest => AdventureQuest
Ratemyteachers => RateMyTeachers
Sausset-Les-Pins => Sausset-les-Pins
Vernagt-stausee => Vernagt-Stausee
Read-Copy-Update => Read-copy-update
Ashur-Etil-Ilani => Ashur-etil-ilani
XMLHTTPRequest => XMLHttpRequest
Talentscotland => TalentScotland
Aizukotetsu-Kai => Aizukotetsu-kai
Tody-Flycatcher => Tody-flycatcher
Scotlandwhisky => ScotlandWhisky
Myfootballclub => MyFootballClub
Thespeedgamers => TheSpeedGamers
Bromo-Dragonfly => Bromo-DragonFLY
Estavayer-le-lac => Estavayer-le-Lac
5-deoxyinositol => 5-Deoxyinositol
Boulogne-Sur-Mer => Boulogne-sur-Mer
Downloadstudio => DownloadStudio
Micromainframe => MicroMainframe
Cyberextension => CyberExtension
Participaction => ParticipACTION
Clayton-Le-Moors => Clayton-le-Moors
Treasurydirect => TreasuryDirect
Champs-sur-yonne => Champs-sur-Yonne
Barrett-jackson => Barrett-Jackson
Cardinal-Nephew => Cardinal-nephew
Lussery-villars => Lussery-Villars
Anti-federalism => Anti-Federalism
Xmlhttprequest => XMLHttpRequest
Rapperswil-jona => Rapperswil-Jona
Hewlett-packard => Hewlett-Packard
Franco-ontarian => Franco-Ontarian
Ijzerbedevaart => IJzerbedevaart
Serjeant-at-arms => Serjeant-at-Arms
Neo-Primitivism => Neo-primitivism
CzechoSlovakia => Czechoslovakia
Govbenefits\.gov => GovBenefits.gov
Judeo-christian => Judeo-Christian
Clay-with-flints => Clay-with-Flints
Merriam-webster => Merriam-Webster
2-aminotetralin => 2-Aminotetralin
2-ethyl-1-butanol => 2-Ethyl-1-butanol
Rikki-tikki-tavi => Rikki-Tikki-Tavi
Eco-Communalism => Eco-communalism
Spaceshipthree => SpaceShipThree
Polen-Rundschau => Polen-rundschau
SystemRescueCd => SystemRescueCD
Tafseer-e-quadri => Tafseer-e-Quadri
Openbittorrent => OpenBitTorrent
Partitionmagic => PartitionMagic
Hunter-Gatherer => Hunter-gatherer
Motte-and-Bailey => Motte-and-bailey
3-allylfentanyl => 3-Allylfentanyl
WisPolitics\.com => Wispolitics.com
Seinfeldvision => SeinfeldVision
Spywareblaster => SpywareBlaster
Phillycarshare => PhillyCarShare
Thornaby-On-Tees => Thornaby-on-Tees
Artasiapacific => ArtAsiaPacific
Left-Handedness => Left-handedness
Glaubeliebetod => GlaubeLiebeTod
Non-Repudiation => non-repudiation
Villars-bramard => Villars-Bramard
TengizChevroil => Tengizchevroil
Design-Bid-Build => Design-bid-build
Neo-Creationism => Neo-creationism
Plaisance-Du-Sud => Plaisance-du-Sud
Crazy/beautiful => Crazy/Beautiful
4-aminopyridine => 4-Aminopyridine
Demeton-s-methyl => Demeton-S-methyl
Opencourseware => OpenCourseWare
Icasualties\.org => iCasualties.org
Techfoundation => TechFoundation
MicroeconomicS => Microeconomics
Paleo-Orthodoxy => Paleo-orthodoxy
Wildlifedirect => WildlifeDirect
HydroGeosphere => HydroGeoSphere
SwiftBroadBand => SwiftBroadband
RedAndNater\.com => RedandNater.com
Aggrosantos\.com => AggroSantos.com
Beta-sitosterol => Beta-Sitosterol
Bang-a-Boomerang => Bang-A-Boomerang
2-nitrofluorene => 2-Nitrofluorene
Pspace-complete => PSPACE-complete
MacroeconomicS => Macroeconomics
Jokkmokks-jokke => Jokkmokks-Jokke
9-aminoacridine => 9-Aminoacridine
Off-off-Broadway => Off-Off-Broadway
Clayton-le-woods => Clayton-le-Woods
Mini-Shinkansen => Mini-shinkansen
Villars-mendraz => Villars-Mendraz
CyberSquatting => Cybersquatting
Lugal-anne-mundu => Lugal-Anne-Mundu
Bromo-dragonfly => Bromo-DragonFLY